# generated using pymatgen
data_CaH6(SO4)4
_symmetry_space_group_name_H-M   P-1
_cell_length_a   5.33600000
_cell_length_b   7.86400000
_cell_length_c   8.23100000
_cell_angle_alpha   88.66000000
_cell_angle_beta   74.37000000
_cell_angle_gamma   79.18000000
_symmetry_Int_Tables_number   2
_chemical_formula_structural   CaH6(SO4)4
_chemical_formula_sum   'Ca1 H6 S4 O16'
_cell_volume   326.57129082
_cell_formula_units_Z   1
loop_
 _symmetry_equiv_pos_site_id
 _symmetry_equiv_pos_as_xyz
  1  'x, y, z'
  2  '-x, -y, -z'
loop_
 _atom_type_symbol
 _atom_type_oxidation_number
  Ca2+  2.0
  H+  1.0
  S6+  6.0
  O2-  -2.0
loop_
 _atom_site_type_symbol
 _atom_site_label
 _atom_site_symmetry_multiplicity
 _atom_site_fract_x
 _atom_site_fract_y
 _atom_site_fract_z
 _atom_site_occupancy
  Ca2+  Ca0  1  0.00000000  0.00000000  0.00000000  1.0
  H+  H1  2  0.26131331  0.45377648  0.66022261  1.0
  H+  H2  2  0.26301953  0.03323185  0.40569970  1.0
  H+  H3  2  0.27746967  0.53473014  0.21433566  1.0
  S6+  S4  2  0.07030000  0.34149000  0.26235000  1.0
  S6+  S5  2  0.46480000  0.82311000  0.24569000  1.0
  O2-  O6  2  0.03840000  0.75390000  0.83940000  1.0
  O2-  O7  2  0.15030000  0.54320000  0.60980000  1.0
  O2-  O8  2  0.21620000  0.46320000  0.14090000  1.0
  O2-  O9  2  0.23940000  0.24490000  0.35380000  1.0
  O2-  O10  2  0.28250000  0.12280000  0.78410000  1.0
  O2-  O11  2  0.28640000  0.90590000  0.41590000  1.0
  O2-  O12  2  0.33380000  0.87440000  0.11540000  1.0
  O2-  O13  2  0.48790000  0.63720000  0.27390000  1.0
